/*--------------------------------*- C++ -*----------------------------*\
| =========                 |                                                |
| \\      /  F ield         | OpenFOAM: The Open Source CFD Toolbox         |
|  \\    /   O peration     | Version:  v2412                               |
|   \\  /    A nd           | Web:      www.openfoam.com                    |
|    \\/     M anipulation  |                                                |
\*-----------------------------------------------------------------------*/
FoamFile
{
    version     2.0;
    format      ascii;
    class       volVectorField;
    object      U;
}
// * * * * * * * * * * * * * * * * * * * * * * * * * * * * * * * * * * * //

dimensions      [0 1 -1 0 0 0 0];

internalField   uniform (0 0 0);

boundaryField
{
    bottom  { type noSlip; }
    top     { type noSlip; }
    left    { type noSlip; }
    right   { type noSlip; }
    front   { type noSlip; }
    back    { type noSlip; }
}

// ************************************************************************* //
